sim-outorder: SimpleScalar/Alpha Tool Set version 3.0 of November, 2000.
Copyright (c) 1994-2000 by Todd M. Austin.  All Rights Reserved.
This version of SimpleScalar is licensed for academic non-commercial use only.

sim: command line: ../../cmp_org_huq_all_trace/sim-outorder -redir:sim ./sim/sim.log -redir:dump ./sim/dump -flow_trace ./flow_trace -cpu:trace ./cpu_trace -L2:trace ./l2_trace -router_trace ./router_trace -config ../../config_mesh_ooo_xy_org -max:barrier 0 -max:inst 1000000 blackscholes64.BNC 
Run on zhc-Inspiron-3670
initializing context 0
thread 0 BLACKSCHOLES
Dcache2_gc power 0.414846
xyz Bpred	1.167153
xyz Rename	0.183448
xyz ROB wakeup	0.038217
xyz ROB ram	0.091037
xyz IQ ram	0.240710
xyz FQ ram	0.240710
xyz iwakeup	0.033655
xyz fwakeup	0.033655
xyz iselect	0.003097
xyz fselect	0.003097
xyz lsq 	0.420154
xyz iregf	1.068173
xyz fregf	1.068173
xyz ialu1	1.264477
xyz ialu2	0.264857
xyz falu1	4.466680
xyz falu2	1.116670
xyz iresultb	0.466051
xyz fresultb	0.559262
xyz itlb	0.016954
xyz dtlb	0.030573
xyz icache	0.585987
xyz dcache	1.085357
xyz clock	3.312529
xyz dcache2	0.834279
xyz clock-fr	0.662506
xyz clock-int	1.656264
xyz clock-fp	0.993759
xyz duplication	0.010978
xyz compare	0.005125
xyz total	18.611057

Processor Parameters:
Issue Width: 4
Window Size: 64
Number of Virtual Registers: 32
Number of Physical Registers: 64
Datapath Width: 64
Total Power Consumption: 20.6023
Branch Predictor Power Consumption: 1.16715  (6.27%)
 branch target buffer power (W): 0.708318
 local predict power (W): 0.173841
 global predict power (W): 0.0709693
 chooser power (W): 0.120756
 RAS power (W): 0.0932687
Rename Logic Power Consumption: 0.183448  (0.986%)
ROB Wakeup Power Consumption: 0.0382174  (0.205%)
ROB RAM Power Consumption: 0.091037  (0.489%)
Clock1 Power Consumption: 0.662506  (3.56%)
Clock2 Power Consumption: 1.65626  (8.9%)
Clock3 Power Consumption: 0.993759  (5.34%)
 Instruction Decode Power (W): 0.00339904
 RAT decode_power (W): 0.0529434
 RAT wordline_power (W): 0.0069866
 RAT bitline_power (W): 0.0936294
 RAT gc_power (W): 0.0241287
 DCL Comparators (W): 0.00236066
Int wakeup Power Consumption: 0.0332278 (0.179%)
Fp wakeup Power Consumption: 0.0332278 (0.179%)
Int selection Power Consumption: 0.0030972 (0.0166%)
Fp selection Power Consumption: 0.0030972 (0.0166%)
Int issueq ram Power Consumption: 0.24071 (1.29%)
Fp issueq ram Power Consumption: 0.24071 (1.29%)
Load/Store Queue Power Consumption: 0.420154  (2.26%)
 tagdrive (W): 0.164489
 tagmatch (W): 0.0664541
 wakeup_gc (W): 0.00042682
 decode_power (W): 0.00840824
 wordline_power (W): 0.00220216
 bitline_power (W): 0.123022
 rs_gc (W): 0.0551512
Int Register File Power Consumption: 1.06817  (5.74%)
 decode_power (W): 0.0529434
 wordline_power (W): 0.012594
 bitline_power (W): 0.78203
 regfile_gc (W): 0.220605
Fp Register File Power Consumption: 1.06817  (5.74%)
 decode_power (W): 0.0529434
 wordline_power (W): 0.012594
 bitline_power (W): 0.78203
 regfile_gc (W): 0.220605
iResult Bus Power Consumption: 0.466051  (2.51%)
fResult Bus Power Consumption: 0.559262  (3.01%)
Total Clock Power: 3.31253  (17.8%)
Int ALU1 Power: 1.26448  (6.8%)
Int ALU2 Power: 0.264857  (1.42%)
FP ALU1 Power: 4.46668  (24%)
FP ALU2 Power: 1.11667  (6%)
Instruction Cache Power Consumption: 0.585987  (3.15%)
 decode_power (W): 0.0136984
 wordline_power (W): 0.0107241
 bitline_power (W): 0.163205
 senseamp_power (W): 0.1536
 tagarray_power (W): 0.0306828
 icache_gc (W): 0.122998
Itlb_power (W): 0.0169544 (0.0911%)
Data Cache Power Consumption: 1.08536  (5.83%)
 decode_power (W): 0.0273968
 wordline_power (W): 0.0214482
 bitline_power (W): 0.32641
 senseamp_power (W): 0.3072
 tagarray_power (W): 0.110481
 dcache_gc (W): 0.123726
Dtlb_power (W): 0.030573 (0.164%)
Level 2 Cache Power Consumption: 0.834279 (4.48%)
 decode_power (W): 0.000717684
 wordline_power (W): 0.00446903
 bitline_power (W): 0.0713944
 senseamp_power (W): 0.0768
 tagarray_power (W): 0.0534131
 dcache2_gc (W): 0.497815
Instruction Duplication Power Consumption: 0.00927211 (0.0498%)
 d_flip_flop_power (W): 0.00508244
 two_to_1_mux_power (W): 0.00418967
Instruction Comparator Power Consumption: 0.00512487 (0.0275%)
sim: command line: ../../cmp_org_huq_all_trace/sim-outorder -redir:sim ./sim/sim.log -redir:dump ./sim/dump -flow_trace ./flow_trace -cpu:trace ./cpu_trace -L2:trace ./l2_trace -router_trace ./router_trace -config ../../config_mesh_ooo_xy_org -max:barrier 0 -max:inst 1000000 blackscholes64.BNC 
Run on zhc-Inspiron-3670

sim: main.c compiled on Dec 30 2021 at 17:16:14 with gcc version 9.3.0
sim: simulation started @ Fri Dec 31 14:33:30 2021, options follow:

sim-outorder: This simulator implements a very detailed out-of-order issue
superscalar processor with a two-level memory system and speculative
execution support.  This simulator is a performance simulator, tracking the
latency of all pipeline operations.

-config                     # load configuration from a file
-dumpconfig                 # dump configuration to a file
-h                    false # print help message    
-v                    false # verbose operation     
-d                    false # enable debug message  
-i                    false # start in Dlite debugger
-seed                       1 # random number generator seed (0 for timer seed)
-q                    false # initialize and terminate immediately
-redir:sim     ./sim/sim.log # redirect simulator output to file (non-interactive only)
-redir:dump      ./sim/dump # redirect simulated program output to file
-nice                       0 # simulator scheduling priority
-max:inst             1000000 # maximum number of inst's to execute/thread
-max:barrier                0 # maximum number of barriers to execute
-network:meshsize            8 # mesh size of the network
-sharer:read_en             1 # sharer read enable    
-inform_back:total_en            1 # inform back en        
-tlb:class_coarse            0 # tlb class coarse      
-multi_blk:set_shift            0 # multi blk set shift   
-multi_blk:adap_en            0 # multi blk adaptive    
-multi_blk_adap:pain_en            0 # multi blk adap pain en
-multi_blk_adap:inform_en            0 # multi blk adap inform en
-multi_blk_adap:repl_ad_en            0 # multi blk adap repl ad en
-multi_blk_adap:recall_ad_en            0 # multi blk adap recall ad en
-pvc:vector_num             8 # pvc vector num        
-pvc:sharer_threshold            8 # pvc sharer threshold  
-pvc:nv_broadcast            0 # pvc non-vector broadcast
-prefetch:L2_En             0 # enable L2 prefetch    
-prefetch:L1_En             0 # enable L1 prefetch    
-STREAM:min                 0 # STREAM & min          
-STREAM:L2_distance           16 # STREAM_L2_distance    
-STREAM:min_distance            0 # STREAM_min_distance   
-ptrace              <null> # generate pipetrace, i.e., <fname|stdout|stderr> <range>
-fetch:ifqsize              4 # instruction fetch queue size (in insts)
-fetch:mplat                5 # extra branch mis-prediction latency
-fetch:speed                1 # speed of front-end of machine relative to execution core
-bpred                   comb # branch predictor type {nottaken|taken|perfect|bimod|2lev|comb|2bcgskew}
-bpred:btb_use_masterid         true # use masterid in place of threadid when interacting with BTB, giving you per-process instead of per-thread entries
-bpred:bimod     4096 # bimodal predictor config (<table size>)
-bpred:2lev      1 8192 13 1 # 2-level predictor config (<l1size> <l2size> <hist_size> <xor>)
-bpred:comb      8192 # combining predictor config (<meta_table_size>)
-disp1                      0 # 2bcgskew table displacement for lev 1
-disp2                      0 # 2bcgskew table displacement for lev 2
-bpred:2bcgskew  32768 32768 0 22 4 4 # 2Bc-gskew predictor config (<bim_size> <size> <bim_hist_size> <g0_hist_size> <g1_hist_size> <meta_hist_size>)
-bpred:ras                 32 # return address stack size (0 for no return stack)
-bpred:btb       4096 4 # BTB config (<num_sets> <associativity>)
-bpred:spec_update       <null> # speculative predictors update in {ID|WB} (default non-spec)
-decode:width               4 # instruction decode B/W (insts/cycle)
-thrdf:limit                8 # Number of thread fetch (thrd/cycle<=8)
-instthrdf:width            4 # instruction fetch B/w per thread (insts/cycle<=decode_width)
-ipregf:size               64 # integer physical register file size (per cluster)
-fpregf:size               64 # floating point physical register file size (per cluster)
-iqueue:size               16 # integer queue size (insts) (per cluster)
-fqueue:size               16 # floating point queue size (insts) (per cluster)
-issue:width                4 # instruction issue B/W (insts/cluster/cycle)
-issue:inorder          false # run pipeline with in-order issue
-issue:wrongpath         true # issue instructions down wrong execution paths
-commit:width               4 # instruction commit B/W (insts/thread/cycle)
-ruu:size                  64 # register update unit (RUU) size
-lsq:size                  32 # load/store queue (LSQ) size (per cluster)
-lq:size                   16 # load queue (LQ) size  
-sq:size                   16 # store queue (SQ) size 
-checker:vdd           0.6000 # checker vdd           
-checker:freq          0.5000 # checker running at what fraction of full freq
-cache:dl1       dl1:128:64:2:l # l1 data cache config, i.e., {<config>|none} (each cluster)
-cache:dl1lat               2 # l1 data cache hit latency (in cycles)
-cache:ml2       ml2:4096:64:8:l # l2 meta cache config, i.e., {<config>|none}
-cache:dl2       dl2:4096:64:8:l # l2 data cache config, i.e., {<config>|none}
-cache:ml2lat              15 # l2 meta cache hit latency (in cycles)
-cache:dl2lat              15 # l2 data cache hit latency (in cycles)
-cache:il1       il1:256:64:2:l # l1 inst cache config, i.e., {<config>|dl1|dl2|none}
-cache:il1lat               1 # l1 instruction cache hit latency (in cycles)
-cache:il2                dl2 # l2 instruction cache config, i.e., {<config>|dl2|none}
-cache:il2lat              15 # l2 instruction cache hit latency (in cycles)
-cache:flush            false # flush caches on system calls
-cache:icompress        false # convert 64-bit inst addresses to 32-bit inst equivalents
-mem:lat         200 12 # memory access latency (<first_chunk> <inter_chunk>)
-mem:width                 16 # memory access bus width (in bytes)
-mem:speed            32.0000 # memory access bus speed (in GHz)
-mem:ports                  8 # memory access port number
-tlb:itlb        itlb:1:4096:64:l # instruction TLB config, i.e., {<config>|none}
-tlb:dtlb        dtlb:1:4096:64:l # data TLB config, i.e., {<config>|none}
-tlb:lat                  250 # inst/data TLB miss latency (in cycles)
-network:rec_algr            0 # receiver algorism for network
-network:net_algr            0 # confliction algorism for network
-res:ialu                   4 # total number of integer ALU's available (per cluster)
-res:imult                  1 # total number of integer multiplier/dividers available (per cluster)
-maxThrds                  64 # Maximum Number of Threads Allowed
-Coherent_Cache          true # Coherent Cache        
-MSI_prot                true # MSI Protocol          
-SPEC                   false # SPEC Benchmarks       
-res:membank                1 # number of data cache banks available (per Cluster to CPU)
-res:memport                2 # total number of memory system ports available (per bank)
-res:fpalu                  4 # total number of floating point ALU's available (per cluster)
-res:fpmult                 1 # total number of floating point multiplier/dividers available (per cluster)
-pcstat              <null> # profile stat(s) against text addr's (mult uses ok)
-bugcompat              false # operate in backward-compatible bugs mode (for testing only)
-hotspot:sampling_intvl        10000 # how many cycles between calls to update_hotspot_stats
-ray:disabled               1 # ray active            
-cpu:trace        ./cpu_trace # file for cpu pipeline trace record
-L2:trace          ./l2_trace # file for L2 trace record
-n_way                      1 # number of clusters assigned to a thread
-n_way_cache                1 # number of cluster caches assigned to a thread
-n_way_adjacent         false # Assigns starting threads at theadid * n_way instead of CLUSTERS/numthreads * threadid (well the min of the two choices when true)
-uni-lat-comm           false # All communications take 1 cycle if from 2 different nodes
-two-lat-comm           false # All communications take 2 cycle if from 2 different nodes (1 cycle for adjacent)
-link:type           <null> # The link definitions, 'name:type:width:hoptime:physics' with type like 'ER' and physics of 'electrical' or 'optical'
-link:custom         <null> # Custom link destination definition, 'name:to0,to1,...' with toi = -1 for no link, specifyig where the link goes from each core.
-fe_link_time              -1 # Fixed time for a cluster node to communicate with the FE. If negative, it will use a noncongested electrical network instead.
-hotspot:flp   /home/vax2/u27/xue/CMP_baseline/run/floorplan.flp # floorplan file (.flp))
-hotspot:init        <null> # hotspot temperature initialization file
-hotspot:steady  hotspot.out # hotspot temperature steady-state (output) file
-hotspot:t_interface      30.0000 # hotspot thermal interface material (thermal paste) thickness, in microns
-hotspot:dump_freq           30 # one in this many calls to update_hotspot_stats will print current temps
-hotspot:base_proc_freq 2500000000.0000 # base processor frequency in Hz
-hotspot:active        false # Turns HotSpot on      
-network                 MESH # network type {FSOI|MESH|COMB|HYBRID}
-network:intercfg         FSOI # inter chip network config {FSOI|MESH}
-network:intracfg         MESH # intra chip network config {FSOI|MESH}
-network:chipnum            4 # number of chips in whole system
-network:input_buffer_size            0 # input buffer size (flit unit)
-network:output_buffer_size           16 # output buffer size (flit unit)
-network:output_ports            1 # output buffer ports   
-network:packet_queue_size          256 # packet queue size (packet unit, used for output buffer)
-network:meta_receivers            2 # total number of receivers for meta packets
-network:data_receivers            2 # total number of receivers for data packets
-network:transmitters            1 # total numbers of transmitters
-network:confirmation_trans            1 # number of confirmation transmitters
-network:confirmation_receiver            1 # number of confirmation receiver
-network:laser_cycle           12 # laser cycle (1 CPU cycle)
-network:meta_transmitter_size            6 # how many bits can be transfered in one laser cycle
-network:data_transmitter_size            6 # how many bits can be transfered in one laser cycle
-network:flit_size           72 # flit size (bits)      
-network:data_packet_size            5 # Data packet size      
-network:meta_packet_size            1 # meta packet size      
-network:confirmation_bit            1 # confirmation bit      
-network:laser_warmup_time            1 # laser warm up time    
-network:laser_setup_time            1 # laser set up time     
-network:laser_switchoff_timeout            1 #                       
-network:data_chan_timeslot            1 #                       
-network:meta_chan_timeslot            1 #                       
-network:exp_backoff            1 #                       
-network:first_slot_num       3.0000 #                       
-network:retry_algr            0 #                       
-network:TBEB_algr            0 #                       
-network:confirmation_time            1 #                       
-mesh_network:buffer_size           12 #                       
-mesh_network:outbuffer_size            1 #                       
-mesh_network:mesh_flit_size           64 #                       
-mesh_network:vc_num            1 #                       
-mesh_network:routing_algr            0 #                       
-mesh_network:phit_size           64 #                       
-flow_trace      ./flow_trace #                       
-router_trace    ./router_trace #                       

####### Network configuration #######

Optical interconnect

Popnet interconnect

Confirmation based optimazation for Invalidation

Write back split in network level

Inorder probability-based scheduling (IRD)

Ordering by addr

###### network configuration end ######

  Pipetrace range arguments are formatted as follows:

    {{@|#}<start>}:{{@|#|+}<end>}

  Both ends of the range are optional, if neither are specified, the entire
  execution is traced.  Ranges that start with a `@' designate an address
  range to be traced, those that start with an `#' designate a cycle count
  range.  All other range values represent an instruction count range.  The
  second argument, if specified with a `+', indicates a value relative
  to the first argument, e.g., 1000:+100 == 1000:1100.  Program symbols may
  be used in all contexts.

    Examples:   -ptrace FOO.trc #0:#1000
                -ptrace BAR.trc @2000:
                -ptrace BLAH.trc :1500
                -ptrace UXXE.trc :
                -ptrace FOOBAR.trc @main:+278

  Branch predictor configuration examples for 2-level predictor:
    Configurations:   N, M, W, X
      N   # entries in first level (# of shift register(s))
      W   width of shift register(s)
      M   # entries in 2nd level (# of counters, or other FSM)
      X   (yes-1/no-0) xor history and address for 2nd level index
    Sample predictors:
      GAg     : 1, W, 2^W, 0
      GAp     : 1, W, M (M > 2^W), 0
      PAg     : N, W, 2^W, 0
      PAp     : N, W, M (M == 2^(N+W)), 0
      gshare  : 1, W, 2^W, 1
  Predictor `comb' combines a bimodal and a 2-level predictor.

  The cache config parameter <config> has the following format:

    <name>:<nsets>:<bsize>:<assoc>:<repl>

    <name>   - name of the cache being defined
    <nsets>  - number of sets in the cache
    <bsize>  - block size of the cache
    <assoc>  - associativity of the cache
    <repl>   - block replacement strategy, 'l'-LRU, 'f'-FIFO, 'r'-random

    Examples:   -cache:dl1 dl1:4096:32:1:l
                -dtlb dtlb:128:4096:32:r

  Cache levels can be unified by pointing a level of the instruction cache
  hierarchy at the data cache hiearchy using the "dl1" and "dl2" cache
  configuration arguments.  Most sensible combinations are supported, e.g.,

    A unified l2 cache (il2 is pointed at dl2):
      -cache:il1 il1:128:64:1:l -cache:il2 dl2
      -cache:dl1 dl1:256:32:1:l -cache:dl2 ul2:1024:64:2:l

    Or, a fully unified cache hierarchy (il1 pointed at dl1):
      -cache:il1 dl1
      -cache:dl1 ul1:256:32:1:l -cache:dl2 ul2:1024:64:2:l



Issueq size   - int 16 fp 16
rename Pregfile size - int 64 fp 64
CLUSTERS 64
ROWCOUNT 4
CENTRAL_CACHE 0
CENTRALCACHELAT 0
CACHELOC 0
PRED_BR_CHANGES 0
PRED_JR_CHANGES 0
DYNAMIC_CHANGE 0
METRIC_CHANGE 0
LINEAR_PHASE 0
SMALLEST_CONFIG 64
GRID 0
CACHEPORTS 64
RES_CACHEPORTS 64
READY_COMM 1
HOLY_REGS 0
NUM_H_REGS 3
COPY_THRESH 50
FIRST_FIT 0
FIRST_FIT_ENFORCE 0
FIRST_VAL 10000
STEER_ENFORCE 0
MOD_N 0
MOD_N_N 8
FIRST_MOD 0
GROUPSIZE 4
MOD_N_T 2
ANYWILLDO 1
NEIGHBOR_SEEK 32
PICKMIDDLE 0
MIDTHRESH 16
HOPTIME 1
COMM_LATENCY 32
CACHE_REFILL_LAT 0
MPRED_COMM_LAT 0
LD_PROXIMITY 0
LDPROX_FACTOR 256
STEER_2NONREADY 0
STEER_CRITICAL 0
ILOAD_MIN 1
IFACTOR 4
RLOAD_MIN 1
RFACTOR 1
DEP_FACTOR 64
LD_FACTOR 0
IQBUF 0
REGFREE 0
FREE_CURR_REGS 0
FREE_INTERVAL 1
DISPDELAY 0
RING_BW 1
TIMEWINDOW 5000
ST_ADDR_COMM 1
ST_RING_BW 1
RING_IC 1
IGNORE_COMM_LATENCY 1
TOL_COUNT 0
STOREDELAY 1
BANKPRED 1
BANKMISPREDLAT 1
BANKP_SPEC 0
LEV1SIZE 1024
LEV2SIZE 4096
XORSIZE 12
WORD_INTERLEAVED 0
WORDSIZE 8
SORT 0
NUMPHASES 64
MIN_INSN_INT 10000
STOP_EXPL_THRESH -5
ILPTAGCHECK 1
DISTILP 120
DISTILPTHRESH 30
SAMPLETHRESH 10
BR_INT 8
ITABLESIZE 16384
OWINDOWSIZE 360
ILPCLEARINT 10000000
STATPRINT 0
CYCNOISE 10
NUMCYCTHRESH 5
STATINT 10000
FREE_REG_THRESH 4000
TABLE2SIZE 4096
TABLESIZE 4096
Thread 0, sim: ** fast forwarding 0 insts **
Context 0 Allocating thread ID at 1: 0
Context 0 Allocating thread ID at 2: 0
Context 0 Allocating thread ID at 3: 0
Context 0 Allocating thread ID at 4: 0
Context 0 Allocating thread ID at 5: 0
Context 0 Allocating thread ID at 6: 0
Context 0 Allocating thread ID at 7: 0
Context 0 Allocating thread ID at 8: 0
Context 0 Allocating thread ID at 9: 0
Context 0 Allocating thread ID at 10: 0
Context 0 Allocating thread ID at 11: 0
Context 0 Allocating thread ID at 12: 0
Context 0 Allocating thread ID at 13: 0
Context 0 Allocating thread ID at 14: 0
Context 0 Allocating thread ID at 15: 0
Context 0 Allocating thread ID at 16: 0
Context 0 Allocating thread ID at 17: 0
Context 0 Allocating thread ID at 18: 0
Context 0 Allocating thread ID at 19: 0
Context 0 Allocating thread ID at 20: 0
Context 0 Allocating thread ID at 21: 0
Context 0 Allocating thread ID at 22: 0
Context 0 Allocating thread ID at 23: 0
Context 0 Allocating thread ID at 24: 0
Context 0 Allocating thread ID at 25: 0
Context 0 Allocating thread ID at 26: 0
Context 0 Allocating thread ID at 27: 0
Context 0 Allocating thread ID at 28: 0
Context 0 Allocating thread ID at 29: 0
Context 0 Allocating thread ID at 30: 0
Context 0 Allocating thread ID at 31: 0
Context 0 Allocating thread ID at 32: 0
Context 0 Allocating thread ID at 33: 0
Context 0 Allocating thread ID at 34: 0
Context 0 Allocating thread ID at 35: 0
Context 0 Allocating thread ID at 36: 0
Context 0 Allocating thread ID at 37: 0
Context 0 Allocating thread ID at 38: 0
Context 0 Allocating thread ID at 39: 0
Context 0 Allocating thread ID at 40: 0
Context 0 Allocating thread ID at 41: 0
Context 0 Allocating thread ID at 42: 0
Context 0 Allocating thread ID at 43: 0
Context 0 Allocating thread ID at 44: 0
Context 0 Allocating thread ID at 45: 0
Context 0 Allocating thread ID at 46: 0
Context 0 Allocating thread ID at 47: 0
Context 0 Allocating thread ID at 48: 0
Context 0 Allocating thread ID at 49: 0
Context 0 Allocating thread ID at 50: 0
Context 0 Allocating thread ID at 51: 0
Context 0 Allocating thread ID at 52: 0
Context 0 Allocating thread ID at 53: 0
Context 0 Allocating thread ID at 54: 0
Context 0 Allocating thread ID at 55: 0
Context 0 Allocating thread ID at 56: 0
Context 0 Allocating thread ID at 57: 0
Context 0 Allocating thread ID at 58: 0
Context 0 Allocating thread ID at 59: 0
Context 0 Allocating thread ID at 60: 0
Context 0 Allocating thread ID at 61: 0
Context 0 Allocating thread ID at 62: 0
Context 0 Allocating thread ID at 63: 0
Initialization over: timing simulation can start now
sim: ** starting performance simulation **
 THRD_WAY_CACHE
 N_WAY_CACHE: default only,  1
PARTITIONED_LSQ
DE_CENTRALIZED_LSQ
 DE_CENTRALIZED_POWER_BUG
SPLIT_LSQ
 PWR_DE_CENTRALIZED_LSQ
ALLOW_ANY_CLUSTER
N_WAY_STEER ,N_WAY:default 1 
SELECTIVE_DISPATCH
INST_TRANS_RATE
 TRACE_REG
IGNORE_ALL_COMM_LATENCY
IGNORE_MEM_COMM_LATENCY
FETCH_ONE_BLOCK 
MSHR , MSHRSIZE 10000000
NO_EXTRA_REG
PORT_PER_BANK
LINE_INTERLEAVED
PWR_CLUSTER,ISSUE_PER_CLUSTER 
PWR__SMT_RR
REMOVE_ILP = 1
HOPTIME = 1
CENTRALIZED_CACHE_BANK
IGNORE_MEM_COMM_LATENCY
DO_DYNAMIC_ADAPTATION = 0
N_WAY = 1
n_way_cache = 1
Total Pregfile size - int 64 fp 64
[INFO]: sim_cycle= 28714	sim_num_insn=20000	Progress=2	data_packets_generate=4790	meta_packets=6057	barriers=0	locks=0
[INFO]: sim_cycle= 34501	sim_num_insn=40007	Progress=4	data_packets_generate=2094	meta_packets=2223	barriers=0	locks=0
[INFO]: sim_cycle= 38851	sim_num_insn=60004	Progress=6	data_packets_generate=1306	meta_packets=1290	barriers=0	locks=0
[INFO]: sim_cycle= 44268	sim_num_insn=80003	Progress=8	data_packets_generate=1350	meta_packets=1325	barriers=0	locks=0
[INFO]: sim_cycle= 47677	sim_num_insn=100002	Progress=10	data_packets_generate=712	meta_packets=810	barriers=0	locks=0
[INFO]: sim_cycle= 49408	sim_num_insn=120004	Progress=12	data_packets_generate=274	meta_packets=323	barriers=0	locks=0
[INFO]: sim_cycle= 50843	sim_num_insn=140009	Progress=14	data_packets_generate=109	meta_packets=136	barriers=0	locks=0
[INFO]: sim_cycle= 51921	sim_num_insn=160002	Progress=16	data_packets_generate=37	meta_packets=38	barriers=0	locks=0
[INFO]: sim_cycle= 52900	sim_num_insn=180016	Progress=18	data_packets_generate=42	meta_packets=39	barriers=0	locks=0
[INFO]: sim_cycle= 53786	sim_num_insn=200012	Progress=20	data_packets_generate=48	meta_packets=42	barriers=0	locks=0
[INFO]: sim_cycle= 54614	sim_num_insn=220001	Progress=22	data_packets_generate=57	meta_packets=63	barriers=0	locks=0
[INFO]: sim_cycle= 55354	sim_num_insn=240026	Progress=24	data_packets_generate=53	meta_packets=62	barriers=0	locks=0
[INFO]: sim_cycle= 56104	sim_num_insn=260005	Progress=26	data_packets_generate=65	meta_packets=73	barriers=0	locks=0
[INFO]: sim_cycle= 56754	sim_num_insn=280029	Progress=28	data_packets_generate=43	meta_packets=39	barriers=0	locks=0
[INFO]: sim_cycle= 57407	sim_num_insn=300019	Progress=30	data_packets_generate=49	meta_packets=78	barriers=0	locks=0
[INFO]: sim_cycle= 58011	sim_num_insn=320010	Progress=32	data_packets_generate=62	meta_packets=60	barriers=0	locks=0
[INFO]: sim_cycle= 58580	sim_num_insn=340021	Progress=34	data_packets_generate=43	meta_packets=67	barriers=0	locks=0
[INFO]: sim_cycle= 59138	sim_num_insn=360016	Progress=36	data_packets_generate=58	meta_packets=69	barriers=0	locks=0
[INFO]: sim_cycle= 59664	sim_num_insn=380004	Progress=38	data_packets_generate=46	meta_packets=54	barriers=0	locks=0
[INFO]: sim_cycle= 60145	sim_num_insn=400003	Progress=40	data_packets_generate=39	meta_packets=49	barriers=0	locks=0
[INFO]: sim_cycle= 60624	sim_num_insn=420002	Progress=42	data_packets_generate=44	meta_packets=85	barriers=0	locks=0
[INFO]: sim_cycle= 61111	sim_num_insn=440023	Progress=44	data_packets_generate=64	meta_packets=83	barriers=0	locks=0
[INFO]: sim_cycle= 61534	sim_num_insn=460038	Progress=46	data_packets_generate=45	meta_packets=41	barriers=0	locks=0
[INFO]: sim_cycle= 61976	sim_num_insn=480031	Progress=48	data_packets_generate=40	meta_packets=59	barriers=0	locks=0
[INFO]: sim_cycle= 62448	sim_num_insn=500034	Progress=50	data_packets_generate=76	meta_packets=119	barriers=0	locks=0
[INFO]: sim_cycle= 62877	sim_num_insn=520026	Progress=52	data_packets_generate=66	meta_packets=75	barriers=0	locks=0
[INFO]: sim_cycle= 63296	sim_num_insn=540020	Progress=54	data_packets_generate=44	meta_packets=64	barriers=0	locks=0
[INFO]: sim_cycle= 63692	sim_num_insn=560024	Progress=56	data_packets_generate=34	meta_packets=37	barriers=0	locks=0
[INFO]: sim_cycle= 64096	sim_num_insn=580012	Progress=58	data_packets_generate=49	meta_packets=87	barriers=0	locks=0
[INFO]: sim_cycle= 64526	sim_num_insn=600023	Progress=60	data_packets_generate=85	meta_packets=117	barriers=0	locks=0
[INFO]: sim_cycle= 64898	sim_num_insn=620035	Progress=62	data_packets_generate=45	meta_packets=46	barriers=0	locks=0
[INFO]: sim_cycle= 65279	sim_num_insn=640017	Progress=64	data_packets_generate=38	meta_packets=36	barriers=0	locks=0
[INFO]: sim_cycle= 65625	sim_num_insn=660013	Progress=66	data_packets_generate=19	meta_packets=32	barriers=0	locks=0
[INFO]: sim_cycle= 66035	sim_num_insn=680041	Progress=68	data_packets_generate=57	meta_packets=77	barriers=0	locks=0
[INFO]: sim_cycle= 66436	sim_num_insn=700008	Progress=70	data_packets_generate=81	meta_packets=93	barriers=0	locks=0
[INFO]: sim_cycle= 66796	sim_num_insn=720021	Progress=72	data_packets_generate=38	meta_packets=53	barriers=0	locks=0
[INFO]: sim_cycle= 67155	sim_num_insn=740010	Progress=74	data_packets_generate=29	meta_packets=33	barriers=0	locks=0
[INFO]: sim_cycle= 67533	sim_num_insn=760006	Progress=76	data_packets_generate=22	meta_packets=40	barriers=0	locks=0
[INFO]: sim_cycle= 67920	sim_num_insn=780043	Progress=78	data_packets_generate=52	meta_packets=38	barriers=0	locks=0
[INFO]: sim_cycle= 68290	sim_num_insn=800020	Progress=80	data_packets_generate=50	meta_packets=82	barriers=0	locks=0
[INFO]: sim_cycle= 68647	sim_num_insn=820014	Progress=82	data_packets_generate=47	meta_packets=42	barriers=0	locks=0
[INFO]: sim_cycle= 69013	sim_num_insn=840041	Progress=84	data_packets_generate=25	meta_packets=42	barriers=0	locks=0
[INFO]: sim_cycle= 69374	sim_num_insn=860017	Progress=86	data_packets_generate=51	meta_packets=67	barriers=0	locks=0
[INFO]: sim_cycle= 69749	sim_num_insn=880026	Progress=88	data_packets_generate=38	meta_packets=76	barriers=0	locks=0
[INFO]: sim_cycle= 70103	sim_num_insn=900053	Progress=90	data_packets_generate=43	meta_packets=52	barriers=0	locks=0
[INFO]: sim_cycle= 70464	sim_num_insn=920053	Progress=92	data_packets_generate=29	meta_packets=48	barriers=0	locks=0
[INFO]: sim_cycle= 70828	sim_num_insn=940029	Progress=94	data_packets_generate=31	meta_packets=48	barriers=0	locks=0
[INFO]: sim_cycle= 71232	sim_num_insn=960053	Progress=96	data_packets_generate=57	meta_packets=78	barriers=0	locks=0
[INFO]: sim_cycle= 71607	sim_num_insn=980014	Progress=98	data_packets_generate=43	meta_packets=54	barriers=0	locks=0
[INFO 2]: sim_num_insn=1000013, barriers=0
sim: ** simulation statistics **
pure_num_insn               1000013 			# total number of instructions committed not including synchronization instructions
total_num_insn              1012962 			# total number of instructions committed including synchronization instructions
TotalBarriers                     0 			# total number of barriers
TotalLocks                        0 			# total number of locks
sim_num_refs                 213004 			# total number of loads and stores committed
sim_num_loads                150205 			# total number of loads committed
sim_num_stores           62799.0000 # total number of stores committed
sim_num_branches             122035 			# total number of branches committed
sim_elapsed_time                111 # total simulation time in seconds
sim_inst_rate             9125.7838 # simulation speed (in insts/sec)
sim_total_insn              1193038 			# total number of instructions executed
sim_total_refs               220702 			# total number of loads and stores executed
sim_total_loads              155160 			# total number of loads executed
sim_total_stores         65542.0000 # total number of stores executed
sim_total_branches           139477 			# total number of branches executed
realSimCycle                  71956 			# 
sim_IPC                <error: variable is undefined: sim_cycle> # instructions per cycle
realSimIPC                  13.8976 # 
mainEffectiveIPC       <error: variable is undefined: main_thread_stall_count> # 
num_of_invalidations              0 			# Number_Of_Validations
sim_CPI                <error: variable is undefined: sim_cycle> # cycles per instruction
sim_exec_BW            <error: variable is undefined: sim_cycle> # total instructions (mis-spec + committed) per cycle
ldIssueCount                 163004 			# total ld issue attmept
pullbackCycleCnt_0               79 			# 
max_lsq_num                       0 			# 
total_data_counts             12792 			# total num of data packets in all
total_meta_counts             14929 			# total num of meta packets in all
total_data_sync_counts            0 			# total num of data sync packets in all
total_meta_sync_counts            0 			# total num of meta sync packets in all
total_optical_data_counts            0 			# total num of data packets in optical network
total_optical_meta_counts            0 			# total num of meta packets in optical network
total_mesh_data_counts            0 			# total num of data packets in mesh network
total_mesh_meta_counts            0 			# total num of meta packets in mesh network
total_sync_writeup                0 			# total num of event inital created
total_sync_writemiss              0 			# total num of event inital created
total_sync_readmiss               0 			# total num of event inital created
total_normal_event_count         4117 			# total num of event inital created
total_sync_event_count            0 			# total num of event inital created
total_event_count              4117 			# total num of event inital created
total_write_indicate              0 			# 
total_exclusive_modified            0 			# 
total_exclusive_conf              0 			# 
total_exclusive_cross             0 			# 
total_prefetch_wb_early            0 			# total num of event created due to L1 prefetch
total_prefetch_l1_count            0 			# total num of event created due to L1 prefetch
total_prefetch_l2_count            0 			# total num of event created due to L2 prefetch
total_prefetch_l1_first_count            0 			# total num of event created due to L1 prefetch
total_prefetch_l1_sec_count            0 			# total num of event created due to L1 prefetch
total_prefetch_l1_usefull            0 			# total num of usefull L1 prefetch
total_prefetch_l1_writeafter            0 			# total num of usefull L1 prefetch
sim_num_insn                1012962 			# total number of instructions committed not including consistency replay instructions
sim_cycle                                                       71956 			# total simulation time in cycles
replace_history                                                     8 			# depth of replace history
coherence_history                                                   8 			# depth of coherence history
prefetch_replace_history                                            1 			# depth of prefetch replace history
L1_miss_table_size                                                 32 			# L1_miss_table_size
L1_stream_entries                                                  16 			# L1_stream_entries
L2_miss_table_size                                                 16 			# L2_miss_table_size
L2_stream_entries                                                   8 			# L2_stream_entries
Total_MetaPackets_Num                                           14701 			# total number of MetaPackets
Total_DataPackets_Num                                           12619 			# total number of DataPackets
total_L2_MEM_L2Prefetch_Req                                         0 			# total_L2_MEM_L2Prefetch_Req
total_L2_MEM_Data_Miss_Req                                       1267 			# total_L2_MEM_Data_Miss_Req
total_L2_MEM_Inst_Miss_Req                                        100 			# total_L2_MEM_Inst_Miss_Req
total_MEM_L2_Data_Payload                                        2363 			# total_MEM_L2_Data_Payload
total_MEM_L2_Inst_Payload                                         365 			# total_MEM_L2_Inst_Payload
total_L2_MEM_Data_Payload                                          23 			# total_L2_MEM_Data_Payload
total_L1_L2_Inst_Miss_Req                                        5924 			# total_L1_L2_Inst_Miss_Req
total_L2_L1_Inst_Payload                                         5869 			# total_L2_L1_Inst_Payload
total_L1_L2_Data_Read_Miss_Req                                   3673 			# total_L1_L2_Data_Read_Miss_Req
total_L2_L1_Data_Read_Miss_Payload                               3648 			# total_L2_L1_Data_Read_Miss_Payload
total_L2_L1_Data_Read_Invalid                                     506 			# total_L2_L1_Data_Read_Invalid
total_L1_L2_Data_Read_Invalid_Ack                                 191 			# total_L1_L2_Data_Read_Invalid_Ack
total_L1_L2_Data_Read_Invalid_Payload                             315 			# total_L1_L2_Data_Read_Invalid_Payload
total_L1_L2_Data_Write_Miss_Req                                   264 			# total_L1_L2_Data_Write_Miss_Req
total_L2_L1_Data_Write_Miss_Payload                               282 			# total_L2_L1_Data_Write_Miss_Payload
total_L2_L1_Data_L2replaced_Invalid                                58 			# total_L2_L1_Data_L2replaced_Invalid
total_L2_L1_Data_Write_Invalid                                    435 			# total_L2_L1_Data_Write_Invalid
total_L1_L2_Data_L2replaced_Invalid_Ack                            51 			# total_L1_L2_Data_L2replaced_Invalid_Ack
total_L1_L2_Data_Write_Invalid_Ack                                 33 			# total_L1_L2_Data_Write_Invalid_Ack
total_L1_L2_Data_L2replaced_Invalid_Payload                         7 			# total_L1_L2_Data_L2replaced_Invalid_Payload
total_L1_L2_Data_Write_Invalid_Payload                            402 			# total_L1_L2_Data_Write_Invalid_Payload
total_L1_L2_Data_Write_Update                                     205 			# total_L1_L2_Data_Write_Update
total_L2_L1_Data_Write_Update_Ack                                 183 			# total_L2_L1_Data_Write_Update_Ack
total_L1_L2_Data_Writeback_Payload                                 15 			# total_L1_L2_Data_Writeback_Payload
total_L2_L1_Data_Verify_Ack                                         0 			# total_L2_L1_Data_Verify_Ack
total_L2_L1_Data_Verify_Playload                                    0 			# total_L2_L1_Data_Verify_Playload
total_L2_L1_Data_Prefetch_Playload_PPP                              0 			# total_L2_L1_Data_Prefetch_Playload_PPP
total_L1_L2_Read_Verify_Req                                         0 			# total_L1_L2_Read_Verify_Req
total_L1_L2_Write_Verify_Req                                        0 			# total_L1_L2_Write_Verify_Req
total_L1_L2_shr_tlb_miss_Req                                      784 			# total_L1_L2_shr_tlb_miss_Req
total_L1_L2_shr_tlb_write_back_Req                                  0 			# total_L1_L2_shr_tlb_write_back_Req
total_L1_L2_shr_tlb_sr_recovery_Req                                 0 			# total_L1_L2_shr_tlb_sr_recovery_Req
total_L1_L2_shr_tlb_update_pr_ack_Req                               0 			# total_L1_L2_shr_tlb_update_pr_ack_Req
total_L1_L2_shr_tlb_update_pw_ack_Req                               0 			# total_L1_L2_shr_tlb_update_pw_ack_Req
total_L1_L2_shr_tlb_recovery_ack_Req                                0 			# total_L1_L2_shr_tlb_recovery_ack_Req
total_L1_L2_dir_tlb_refill_Req                                    784 			# total_L1_L2_dir_tlb_refill_Req
total_L1_L2_dir_tlb_update_Req                                      0 			# total_L1_L2_dir_tlb_update_Req
total_L1_L2_dir_tlb_recovery_Req                                    0 			# total_L1_L2_dir_tlb_recovery_Req
total_L2_L1_dir_shr_read                                            0 			# total_L2_L1_dir_shr_read
total_L1_L2_ack_shr_read                                            0 			# total_L1_L2_ack_shr_read
total_L1_L2_inform_back                                            53 			# total_L1_L2_inform_back
total_TSHR_Full                                                     0 			# total_TSHR_Full
level1_data_cache_access                                       138061 			# total num of level1 data cache_access
level1_data_cache_access_read                                   81353 			# total num of level1 data cache_access_read
level1_data_cache_access_write                                  56708 			# total num of level1 data cache_access_write
level1_data_cache_access_read_hit                               77702 			# total num of level1 data cache_access_read_hit
level1_data_cache_access_read_miss                               3651 			# total num of level1 data cache_access_read_miss
level1_data_cache_access_read_compulsory_miss                       0 			# total num of level1 data cache_access_read_compulsory_miss
level1_data_cache_access_read_capacity_miss                         0 			# total num of level1 data cache_access_read_capacity_miss
level1_data_cache_access_read_coherence_miss                        0 			# total num of level1 data cache_access_read_coherence_miss
level1_data_cache_access_read_prefetch_capacity_miss                0 			# total num of level1 data cache_access_read_prefetch_capacity_miss
level1_data_cache_access_write_miss                               262 			# total num of level1 data cache_access_write_miss
level1_data_cache_access_write_compulsory_miss                      0 			# total num of level1 data cache_access_write_compulsory_miss
level1_data_cache_access_write_capacity_miss                        0 			# total num of level1 data cache_access_write_capacity_miss
level1_data_cache_access_write_coherence_miss                       0 			# total num of level1 data cache_access_write_coherence_miss
level1_data_cache_access_write_prefetch_capacity_miss               0 			# total num of level1 data cache_access_write_prefetch_capacity_miss
level1_data_cache_access_write_local                            56242 			# total num of level1 data cache_access_write_local
level1_data_cache_access_write_local_FPP                            0 			# total num of level1 data cache_access_write_local_FPP
level1_data_cache_access_write_update                             204 			# total num of level1 data cache_access_write_update
read_L1_miss_L2_hit_num                                             0 			# read L1 miss L2 hit num 
read_L1_miss_L2_hit_total_time                                      0 			# read L1 miss L2 hit total time
read_L2_miss_num                                                 3647 			# read L2 miss num
read_L2_miss_total_time                                        702546 			# read L2 miss total time 
write_L1_miss_L2_hit_num                                          282 			# write L1 miss L2 hit num
write_L1_miss_L2_hit_total_time                                 87767 			# write L1 miss L2 hit total time
write_L2_miss_num                                                   0 			# write L2 miss num
write_L2_miss_total_time                                            0 			# write L2 miss total time
total_page_num                                                     52 			# total_page_num
pr_page_num                                                        52 			# pr_page_num
pw_page_num                                                         0 			# pw_page_num
sr_page_num                                                         0 			# sr_page_num
sw_page_num                                                         0 			# sw_page_num
total_line_num                                                   1248 			# total_line_num
pr_line_num                                                       586 			# pr_line_num
pw_line_num                                                       309 			# pw_line_num
sr_line_num                                                       293 			# sr_line_num
sw_line_num                                                        60 			# sw_line_num
SWP_total_line                                                   1244 			# SWP_total_line
SWP_sw_line                                                        60 			# SWP_sw_line
SWP_sr_line                                                       292 			# SWP_sr_line
SWP_pw_line                                                       309 			# SWP_pw_line
SWP_pr_line                                                       583 			# SWP_pr_line
recall_num                                                         58 			# recall_num
recall_inv_num                                                     58 			# recall_inv_num
read_inv_S_num                                                    505 			# read_inv_S_num
read_inv_QH_num                                                     0 			# read_inv_QH_num
read_inv_e_QM_num                                                   0 			# read_inv_e_QM_num
read_inv_d_QM_num                                                   0 			# read_inv_d_QM_num
write_inv_d_S_num                                                  33 			# write_inv_d_S_num
write_inv_e_S_num                                                   0 			# write_inv_e_S_num
write_inv_s_S_num                                                 382 			# write_inv_s_S_num
write_inv_i_S_num                                                  20 			# write_inv_i_S_num
write_inv_d_QM_num                                                  0 			# write_inv_d_QM_num
write_inv_e_QM_num                                                  0 			# write_inv_e_QM_num
write_inv_s_QM_num                                                  0 			# write_inv_s_QM_num
write_inv_i_QM_num                                                  0 			# write_inv_i_QM_num
write_inv_d_QH_num                                                  0 			# write_inv_d_QH_num
write_inv_e_QH_num                                                  0 			# write_inv_e_QH_num
write_inv_s_QH_num                                                  0 			# write_inv_s_QH_num
write_inv_i_QH_num                                                  0 			# write_inv_i_QH_num
recall_inv_d_S_num                                                 51 			# recall_inv_d_S_num
recall_inv_e_S_num                                                  7 			# recall_inv_e_S_num
recall_inv_s_S_num                                                  0 			# recall_inv_s_S_num
recall_inv_i_S_num                                                  0 			# recall_inv_i_S_num
recall_inv_d_Q_num                                                  0 			# recall_inv_d_Q_num
recall_inv_e_Q_num                                                  0 			# recall_inv_e_Q_num
recall_inv_s_Q_num                                                  0 			# recall_inv_s_Q_num
recall_inv_i_Q_num                                                  0 			# recall_inv_i_Q_num
SW_read_request_num                                              3651 			# SW_read_request_num
SW_write_request_num                                              466 			# SW_write_request_num
read_S_hit_num                                                   3648 			# read_S_hit_num
read_Q_hit_num                                                      0 			# read_Q_hit_num
read_Q_init_num                                                  1069 			# read_Q_init_num
read_Q_init_SR_num                                                 28 			# read_Q_init_SR_num
read_Q_init_QR_num                                                  0 			# read_Q_init_QR_num
write_S_hit_num                                                   465 			# write_S_hit_num
write_Q_hit_num                                                     0 			# write_Q_hit_num
write_S_init_ed_num                                                 0 			# write_S_init_ed_num
write_S_init_ed_SR_num                                              0 			# write_S_init_ed_SR_num
write_S_init_ed_QR_num                                              0 			# write_S_init_ed_QR_num
write_S_init_s_num                                                  0 			# write_S_init_s_num
write_S_init_s_SR_num                                               0 			# write_S_init_s_SR_num
write_S_init_s_QR_num                                               0 			# write_S_init_s_QR_num
write_Q_init_num                                                  229 			# write_Q_init_num
write_Q_init_SR_num                                                30 			# write_Q_init_SR_num
write_Q_init_QR_num                                                 0 			# write_Q_init_QR_num
shr_data_req_initial_num                                            0 			# shr_data_req_initial_num
shr_data_req_total_num                                              0 			# shr_data_req_total_num
shr_data_req_fail_num                                               0 			# shr_data_req_fail_num
inform_back_num                                                    52 			# inform_back_num
write_back_num                                                     15 			# write_back_num
inform_back_Q                                                       0 			# inform_back_Q
inform_back_S                                                      52 			# inform_back_S
write_back_Q                                                        0 			# write_back_Q
write_back_S                                                       15 			# write_back_S
mb_pain_delay_num                                                   0 			# mb_pain_delay_num
mb_pain_portuse_num                                                 0 			# mb_pain_portuse_num
read_Q_init_QR_s_num                                                0 			# read_Q_init_QR_s_num
read_Q_init_QR_ed_num                                               0 			# read_Q_init_QR_ed_num
write_S_init_ed_QR_s_num                                            0 			# write_S_init_ed_QR_s_num
write_S_init_ed_QR_ed_num                                           0 			# write_S_init_ed_QR_ed_num
write_S_init_s_QR_s_num                                             0 			# write_S_init_s_QR_s_num
write_S_init_s_QR_ed_num                                            0 			# write_S_init_s_QR_ed_num
write_Q_init_QR_s_num                                               0 			# write_Q_init_QR_s_num
write_Q_init_QR_ed_num                                              0 			# write_Q_init_QR_ed_num
recall_inv_d_Q_s_num                                                0 			# recall_inv_d_Q_s_num
recall_inv_d_Q_ed_num                                               0 			# recall_inv_d_Q_ed_num
recall_inv_e_Q_s_num                                                0 			# recall_inv_e_Q_s_num
recall_inv_e_Q_ed_num                                               0 			# recall_inv_e_Q_ed_num
recall_inv_s_Q_s_num                                                0 			# recall_inv_s_Q_s_num
recall_inv_s_Q_ed_num                                               0 			# recall_inv_s_Q_ed_num
recall_inv_i_Q_s_num                                                0 			# recall_inv_i_Q_s_num
recall_inv_i_Q_ed_num                                               0 			# recall_inv_i_Q_ed_num
recall_inv_d_Q_s_ad_num                                             0 			# recall_inv_d_Q_s_ad_num
recall_inv_e_Q_s_ad_num                                             0 			# recall_inv_e_Q_s_ad_num
recall_inv_s_Q_ed_ad_num                                            0 			# recall_inv_s_Q_ed_ad_num
line_access_num                                                109647 			# line_access_num
SWP_line_access_num                                            109647 			# SWP_line_access_num
SWP_PR_line_access_num                                           3180 			# SWP_PR_line_access_num
SWP_PW_line_access_num                                          53777 			# SWP_PW_line_access_num
SWP_SR_line_access_num                                          49715 			# SWP_SR_line_access_num
SWP_SW_line_access_num                                           1727 			# SWP_SW_line_access_num
PVC_vector_distr_record_num                                      3648 			# PVC_vector_distr_record_num
PVC_vector_inc_distr_record_num                                   505 			# PVC_vector_inc_distr_record_num
PVC_vector_distr_0                                              1070 			# 
PVC_vector_distr_1                                              2578 			# 
PVC_vector_distr_2                                                 0 			# 
PVC_vector_distr_3                                                 0 			# 
PVC_vector_distr_4                                                 0 			# 
PVC_vector_distr_5                                                 0 			# 
PVC_vector_distr_6                                                 0 			# 
PVC_vector_distr_7                                                 0 			# 
PVC_vector_distr_8                                                 0 			# 
PVC_vector_inc_distr_0                                           505 			# 
PVC_vector_inc_distr_1                                             0 			# 
PVC_vector_inc_distr_2                                             0 			# 
PVC_vector_inc_distr_3                                             0 			# 
PVC_vector_inc_distr_4                                             0 			# 
PVC_vector_inc_distr_5                                             0 			# 
PVC_vector_inc_distr_6                                             0 			# 
PVC_vector_inc_distr_7                                             0 			# 
PVC_vector_inc_distr_8                                             0 			# 
PVC_exchange_num                                                    0 			# PVC_exchange_num
PVC_flip_num                                                        0 			# PVC_flip_num
PVC_dowm_no_inv_num                                                 0 			# PVC_dowm_no_inv_num
PVC_dowm_inv_num                                                    0 			# PVC_dowm_inv_num
PVC_dowm_inv_shr_num                                                0 			# PVC_dowm_inv_shr_num
PVC_up_no_add_num                                                   0 			# PVC_up_no_add_num
PVC_up_add_num                                                      0 			# PVC_up_add_num
PVC_up_add_shr_num                                                  0 			# PVC_up_add_shr_num
PVC_exch_vec_shr_distr_0                                           0 			# 
PVC_exch_vec_shr_distr_1                                           0 			# 
PVC_exch_vec_shr_distr_2                                           0 			# 
PVC_exch_vec_shr_distr_3                                           0 			# 
PVC_exch_vec_shr_distr_4                                           0 			# 
PVC_exch_vec_shr_distr_5                                           0 			# 
PVC_exch_vec_shr_distr_6                                           0 			# 
PVC_exch_vec_shr_distr_7                                           0 			# 
PVC_exch_vec_shr_distr_8                                           0 			# 
PVC_exch_vec_shr_distr_9                                           0 			# 
PVC_exch_vec_shr_distr_10                                           0 			# 
PVC_exch_vec_shr_distr_11                                           0 			# 
PVC_exch_vec_shr_distr_12                                           0 			# 
PVC_exch_vec_shr_distr_13                                           0 			# 
PVC_exch_vec_shr_distr_14                                           0 			# 
PVC_exch_vec_shr_distr_15                                           0 			# 
PVC_exch_vec_shr_distr_16                                           0 			# 
PVC_exch_vec_shr_distr_17                                           0 			# 
PVC_exch_vec_shr_distr_18                                           0 			# 
PVC_exch_vec_shr_distr_19                                           0 			# 
PVC_exch_vec_shr_distr_20                                           0 			# 
PVC_exch_vec_shr_distr_21                                           0 			# 
PVC_exch_vec_shr_distr_22                                           0 			# 
PVC_exch_vec_shr_distr_23                                           0 			# 
PVC_exch_vec_shr_distr_24                                           0 			# 
PVC_exch_vec_shr_distr_25                                           0 			# 
PVC_exch_vec_shr_distr_26                                           0 			# 
PVC_exch_vec_shr_distr_27                                           0 			# 
PVC_exch_vec_shr_distr_28                                           0 			# 
PVC_exch_vec_shr_distr_29                                           0 			# 
PVC_exch_vec_shr_distr_30                                           0 			# 
PVC_exch_vec_shr_distr_31                                           0 			# 
PVC_exch_vec_shr_distr_32                                           0 			# 
PVC_exch_vec_shr_distr_33                                           0 			# 
PVC_exch_vec_shr_distr_34                                           0 			# 
PVC_exch_vec_shr_distr_35                                           0 			# 
PVC_exch_vec_shr_distr_36                                           0 			# 
PVC_exch_vec_shr_distr_37                                           0 			# 
PVC_exch_vec_shr_distr_38                                           0 			# 
PVC_exch_vec_shr_distr_39                                           0 			# 
PVC_exch_vec_shr_distr_40                                           0 			# 
PVC_exch_vec_shr_distr_41                                           0 			# 
PVC_exch_vec_shr_distr_42                                           0 			# 
PVC_exch_vec_shr_distr_43                                           0 			# 
PVC_exch_vec_shr_distr_44                                           0 			# 
PVC_exch_vec_shr_distr_45                                           0 			# 
PVC_exch_vec_shr_distr_46                                           0 			# 
PVC_exch_vec_shr_distr_47                                           0 			# 
PVC_exch_vec_shr_distr_48                                           0 			# 
PVC_exch_vec_shr_distr_49                                           0 			# 
PVC_exch_vec_shr_distr_50                                           0 			# 
PVC_exch_vec_shr_distr_51                                           0 			# 
PVC_exch_vec_shr_distr_52                                           0 			# 
PVC_exch_vec_shr_distr_53                                           0 			# 
PVC_exch_vec_shr_distr_54                                           0 			# 
PVC_exch_vec_shr_distr_55                                           0 			# 
PVC_exch_vec_shr_distr_56                                           0 			# 
PVC_exch_vec_shr_distr_57                                           0 			# 
PVC_exch_vec_shr_distr_58                                           0 			# 
PVC_exch_vec_shr_distr_59                                           0 			# 
PVC_exch_vec_shr_distr_60                                           0 			# 
PVC_exch_vec_shr_distr_61                                           0 			# 
PVC_exch_vec_shr_distr_62                                           0 			# 
PVC_exch_vec_shr_distr_63                                           0 			# 
PVC_exch_vec_shr_distr_64                                           0 			# 
PVC_dowm_inv_shr_distr_0                                           0 			# 
PVC_dowm_inv_shr_distr_1                                           0 			# 
PVC_dowm_inv_shr_distr_2                                           0 			# 
PVC_dowm_inv_shr_distr_3                                           0 			# 
PVC_dowm_inv_shr_distr_4                                           0 			# 
PVC_dowm_inv_shr_distr_5                                           0 			# 
PVC_dowm_inv_shr_distr_6                                           0 			# 
PVC_dowm_inv_shr_distr_7                                           0 			# 
PVC_dowm_inv_shr_distr_8                                           0 			# 
PVC_dowm_inv_shr_distr_9                                           0 			# 
PVC_dowm_inv_shr_distr_10                                           0 			# 
PVC_dowm_inv_shr_distr_11                                           0 			# 
PVC_dowm_inv_shr_distr_12                                           0 			# 
PVC_dowm_inv_shr_distr_13                                           0 			# 
PVC_dowm_inv_shr_distr_14                                           0 			# 
PVC_dowm_inv_shr_distr_15                                           0 			# 
PVC_dowm_inv_shr_distr_16                                           0 			# 
PVC_dowm_inv_shr_distr_17                                           0 			# 
PVC_dowm_inv_shr_distr_18                                           0 			# 
PVC_dowm_inv_shr_distr_19                                           0 			# 
PVC_dowm_inv_shr_distr_20                                           0 			# 
PVC_dowm_inv_shr_distr_21                                           0 			# 
PVC_dowm_inv_shr_distr_22                                           0 			# 
PVC_dowm_inv_shr_distr_23                                           0 			# 
PVC_dowm_inv_shr_distr_24                                           0 			# 
PVC_dowm_inv_shr_distr_25                                           0 			# 
PVC_dowm_inv_shr_distr_26                                           0 			# 
PVC_dowm_inv_shr_distr_27                                           0 			# 
PVC_dowm_inv_shr_distr_28                                           0 			# 
PVC_dowm_inv_shr_distr_29                                           0 			# 
PVC_dowm_inv_shr_distr_30                                           0 			# 
PVC_dowm_inv_shr_distr_31                                           0 			# 
PVC_dowm_inv_shr_distr_32                                           0 			# 
PVC_dowm_inv_shr_distr_33                                           0 			# 
PVC_dowm_inv_shr_distr_34                                           0 			# 
PVC_dowm_inv_shr_distr_35                                           0 			# 
PVC_dowm_inv_shr_distr_36                                           0 			# 
PVC_dowm_inv_shr_distr_37                                           0 			# 
PVC_dowm_inv_shr_distr_38                                           0 			# 
PVC_dowm_inv_shr_distr_39                                           0 			# 
PVC_dowm_inv_shr_distr_40                                           0 			# 
PVC_dowm_inv_shr_distr_41                                           0 			# 
PVC_dowm_inv_shr_distr_42                                           0 			# 
PVC_dowm_inv_shr_distr_43                                           0 			# 
PVC_dowm_inv_shr_distr_44                                           0 			# 
PVC_dowm_inv_shr_distr_45                                           0 			# 
PVC_dowm_inv_shr_distr_46                                           0 			# 
PVC_dowm_inv_shr_distr_47                                           0 			# 
PVC_dowm_inv_shr_distr_48                                           0 			# 
PVC_dowm_inv_shr_distr_49                                           0 			# 
PVC_dowm_inv_shr_distr_50                                           0 			# 
PVC_dowm_inv_shr_distr_51                                           0 			# 
PVC_dowm_inv_shr_distr_52                                           0 			# 
PVC_dowm_inv_shr_distr_53                                           0 			# 
PVC_dowm_inv_shr_distr_54                                           0 			# 
PVC_dowm_inv_shr_distr_55                                           0 			# 
PVC_dowm_inv_shr_distr_56                                           0 			# 
PVC_dowm_inv_shr_distr_57                                           0 			# 
PVC_dowm_inv_shr_distr_58                                           0 			# 
PVC_dowm_inv_shr_distr_59                                           0 			# 
PVC_dowm_inv_shr_distr_60                                           0 			# 
PVC_dowm_inv_shr_distr_61                                           0 			# 
PVC_dowm_inv_shr_distr_62                                           0 			# 
PVC_dowm_inv_shr_distr_63                                           0 			# 
PVC_dowm_inv_shr_distr_64                                           0 			# 
PVC_up_add_shr_distr_0                                             0 			# 
PVC_up_add_shr_distr_1                                             0 			# 
PVC_up_add_shr_distr_2                                             0 			# 
PVC_up_add_shr_distr_3                                             0 			# 
PVC_up_add_shr_distr_4                                             0 			# 
PVC_up_add_shr_distr_5                                             0 			# 
PVC_up_add_shr_distr_6                                             0 			# 
PVC_up_add_shr_distr_7                                             0 			# 
PVC_up_add_shr_distr_8                                             0 			# 
PVC_up_add_shr_distr_9                                             0 			# 
PVC_up_add_shr_distr_10                                             0 			# 
PVC_up_add_shr_distr_11                                             0 			# 
PVC_up_add_shr_distr_12                                             0 			# 
PVC_up_add_shr_distr_13                                             0 			# 
PVC_up_add_shr_distr_14                                             0 			# 
PVC_up_add_shr_distr_15                                             0 			# 
PVC_up_add_shr_distr_16                                             0 			# 
PVC_up_add_shr_distr_17                                             0 			# 
PVC_up_add_shr_distr_18                                             0 			# 
PVC_up_add_shr_distr_19                                             0 			# 
PVC_up_add_shr_distr_20                                             0 			# 
PVC_up_add_shr_distr_21                                             0 			# 
PVC_up_add_shr_distr_22                                             0 			# 
PVC_up_add_shr_distr_23                                             0 			# 
PVC_up_add_shr_distr_24                                             0 			# 
PVC_up_add_shr_distr_25                                             0 			# 
PVC_up_add_shr_distr_26                                             0 			# 
PVC_up_add_shr_distr_27                                             0 			# 
PVC_up_add_shr_distr_28                                             0 			# 
PVC_up_add_shr_distr_29                                             0 			# 
PVC_up_add_shr_distr_30                                             0 			# 
PVC_up_add_shr_distr_31                                             0 			# 
PVC_up_add_shr_distr_32                                             0 			# 
PVC_up_add_shr_distr_33                                             0 			# 
PVC_up_add_shr_distr_34                                             0 			# 
PVC_up_add_shr_distr_35                                             0 			# 
PVC_up_add_shr_distr_36                                             0 			# 
PVC_up_add_shr_distr_37                                             0 			# 
PVC_up_add_shr_distr_38                                             0 			# 
PVC_up_add_shr_distr_39                                             0 			# 
PVC_up_add_shr_distr_40                                             0 			# 
PVC_up_add_shr_distr_41                                             0 			# 
PVC_up_add_shr_distr_42                                             0 			# 
PVC_up_add_shr_distr_43                                             0 			# 
PVC_up_add_shr_distr_44                                             0 			# 
PVC_up_add_shr_distr_45                                             0 			# 
PVC_up_add_shr_distr_46                                             0 			# 
PVC_up_add_shr_distr_47                                             0 			# 
PVC_up_add_shr_distr_48                                             0 			# 
PVC_up_add_shr_distr_49                                             0 			# 
PVC_up_add_shr_distr_50                                             0 			# 
PVC_up_add_shr_distr_51                                             0 			# 
PVC_up_add_shr_distr_52                                             0 			# 
PVC_up_add_shr_distr_53                                             0 			# 
PVC_up_add_shr_distr_54                                             0 			# 
PVC_up_add_shr_distr_55                                             0 			# 
PVC_up_add_shr_distr_56                                             0 			# 
PVC_up_add_shr_distr_57                                             0 			# 
PVC_up_add_shr_distr_58                                             0 			# 
PVC_up_add_shr_distr_59                                             0 			# 
PVC_up_add_shr_distr_60                                             0 			# 
PVC_up_add_shr_distr_61                                             0 			# 
PVC_up_add_shr_distr_62                                             0 			# 
PVC_up_add_shr_distr_63                                             0 			# 
PVC_up_add_shr_distr_64                                             0 			# 
PVC_inform_all_shr_num                                              0 			# PVC_inform_all_shr_num
PVC_rfs_all_shr_num                                                 0 			# PVC_rfs_all_shr_num
PVC_read_all_shr_num                                                0 			# PVC_read_all_shr_num
PVC_write_all_shr_num                                               0 			# PVC_write_all_shr_num
PVC_recall_all_shr_num                                              0 			# PVC_recall_all_shr_num
pvc_nv_conflict_num                                                 0 			# pvc_nv_conflict_num
total_req_event_count           262 			# total num of request event inital created
StoreConditionFailNum             0 			# Total store conditional failed num
lock_network_access               0 			# 
totalUpgrades                   204 			# total number of upgrades seen
total_miss_event_count         3651 			# total num of miss event intial created
totalNetUpgrades                202 			# total number of upgrades seen
totalUpgradesUsable               0 			# total number of upgrades not usable
totalUpgradesBeneficial            0 			# total number of upgrades not usable
totalUpgradesUse2                 0 			# total number of upgrades usable without confirmation
totalSyncdata                     0 			# total number of data packets due to sync
totalSyncmeta                     0 			# total number of meta packets due to sync
totalNetWrites                    0 			# total number of Writes seen
totalWritesUsable                 0 			# total number of Writes not usable
totalWritesBeneficial             0 			# total number of Writes not usable
totalWritesUse2                   0 			# total number of Writes usable without confirmation
totalNoExclusive                  0 			# total number of Writes unusable because of exclusive somewhere else
totalFrontWrite                   0 			# total number of Writes unusavle because of front write
totalL2WriteReqHits               0 			# total num of write events
totalL2WriteReqNoSharer            0 			# total num of write req with no sharers
totalL2WriteReqDirty              0 			# total  num of write req with just one sharer
delayL2WriteReqDirty              0 			# Extra delay to complete write req with just one sharer, in case the earlier write would had been write through
totalL2WriteReqDirtyWT            0 			# total times write req with just one sharer, in case the earlier write would had been write through
totalL2WriteReqShared             0 			# total num of write req with multiple sharers
delayL2WriteReqShared             0 			# Extra delay to complete write req with multiple sharers, in case earlier reads would had been read through
totalL2WriteReqSharedWT            0 			# total times write req with multiple sharers, in case earlier reads would had been read through
totalL2ReadReqHits                0 			# total num of Read events
totalL2ReadReqNoSharer            0 			# total num of Read req with no sharers
totalL2ReadReqDirty               0 			# total  num of Read req with just one sharer
delayL2ReadReqDirty               0 			# Extra delay to complete Read req with just one sharer, in case the earlier write would had been write through
totalL2ReadReqDirtyWT             0 			# total times Read req with just one sharer, in case the earlier write would had been write through
totalL2ReadReqShared              0 			# total num of read req with multiple sharers
totalL1LinePrefUse                0 			# total L1 line prefetches useful
totalL1LinePrefNoUse              0 			# total L1 line prefetches not useful
totalL1LineReadUse                0 			# total L1 line read misses useful
totalL1LineReadNoUse              0 			# total L1 line read misses not useful
totalL1LineWriteUse               0 			# total L1 line write misses useful
totalL1LineWriteNoUse             0 			# total L1 line write misses not useful
totalL1LineExlUsed              169 			# total L1 line in exclusive mode useful
totalL1LineExlInv                 0 			# total L1 line in exclusive mode invalidated without use
totalL1LineExlDrop                0 			# total L1 line in exclusive mode droped without use
totalL2ReqPrimMiss                0 			# Total number of directory requests involve in primary miss
totalL2ReqSecMiss                 0 			# Total number of directory requests involve in secondary miss
totalL2ReqHit                     0 			# Total number of directory requests involve in clean hit
totalL2ReqInTrans                 0 			# Total number of directory requests find line in transition
totalL2OwnReqInTrans              0 			# Total number of directory ownership requests find line in transition
totalL2ReqInInv                   0 			# Total number of directory requests have to invalidate
delayL2ReqPrimMiss                0 			# delay of Total number of directory requests involve in primary miss
delayL2ReqSecMiss                 0 			# delay of Total number of directory requests involve in secondary miss
delayL2ReqHit                     0 			# delay of Total number of directory requests involve in clean hit
delayL2ReqInTrans                 0 			# delay of Total number of directory requests find line in transition
delayL2OwnReqInTrans              0 			# delay of Total number of directory ownership requests find line in transition
delayL2ReqInInv                   0 			# delay of Total number of directory requests have to invalidate
totalWriteReq                   282 			# Total number of write request to L2
totalWriteReqInv                210 			# Total number of write requests with invalidations to L2
totalWriteDelay               87767 			# Time spent in write requests to L2
totalWriteInvDelay         -6150751 			# Time spent in invalidation for write requests to L2
totalUpgradeReq                 183 			# Total number of write request to L2
totalUpgradeReqInv                0 			# Total number of write requests with invalidations to L2
totalUpgradeDelay             30044 			# Time spent in write requests to L2
totalUpgradeInvDelay              0 			# Time spent in invalidation for write requests to L2
totalUpgradeDependDelay        22870 			# Time spent in depend delay for update requests to L2
countNonAllocReadEarly            0 			# Number of times a read miss request from L1 has been serviced early without allocation
WM_Miss                           0 			# 
WM_Clean                          0 			# 
WM_S                              0 			# 
WM_EM                             0 			# 
WM_ShardUseConf                   0 			# 
Sync_L2_miss                      0 			# 
SyncInstCacheAccess               0 			# 
TestCacheAccess                   0 			# 
TestSecCacheAccess                0 			# 
SetCacheAccess                    0 			# 
SyncLoadReadMiss                  0 			# 
SyncLoadLReadMiss                 0 			# 
SyncLoadHit                       0 			# 
SyncLoadLHit                      0 			# 
SyncStoreCHit                     0 			# 
SyncStoreCWriteMiss               0 			# 
SyncStoreCWriteUpgrade            0 			# 
SyncStoreHit                      0 			# 
SyncStoreWriteMiss                0 			# 
SyncStoreWriteUpgrade             0 			# 
BarStoreWriteMiss                 0 			# 
BarStoreWriteUpgrade              0 			# 
test_hit_ratio         <error: divide by zero: > # 
test_sec_hit_ratio     <error: divide by zero: > # 
set_hit_ratio          <error: divide by zero: > # 
lock_fifo_full                    0 			# total number of lock fifo overflow
lock_fifo_wrong                   0 			# total number of lock fifo overflow
lock_fifo_writeback               0 			# total number of lock fifo overflow
lock_fifo_benefit                 0 			# total number of lock fifo benefit
lock_cache_hit                    0 			# total number of lock fifo benefit
lock_cache_miss                   0 			# total number of lock fifo benefit
L1_mshr_full                      0 			# total number of L1 mshr overflow
Stall_L1_mshr                     0 			# total stall cycles for L1 mshr overflow
L2_mshr_full                      0 			# total number of L2 mshr overflow
Stall_L2_mshr                     0 			# total stall cycles for L2 mshr overflow
L2_mshr_full_prefetch             0 			# total number of L2 mshr overflow when prefetch
L1_fifo_full                      0 			# total number of L1 fifo overflow
Stall_L1_fifo                     0 			# total stall cycles for L1 fifo overflow
Dir_fifo_full                    28 			# total number of dir fifo overflow
Stall_dir_fifo                  400 			# total stall cycles for dir fifo overflow
Input_queue_full               1710 			# total number of input queue overflow
Output_queue_full                 0 			# total number of output queue overflow
Stall_input_queue             31913 			# total stall cycles due to input queue overflow
Stall_output_queue                0 			# total stall cycles due to output queue overflow
total_load_link_shared            0 			# total load link shared
total_load_link_exclusive            0 			# total load link shared
total_normal_miss_handle_time       820357 			# total time of handling the missing
total_sync_miss_handle_time            0 			# total time of handling the missing
total_L2_miss_handle_time       343083 			# total time of handling the missing
total_Wrong_L2_miss_handle_time            0 			# total time of handling the missing
total_L2_misses                1263 			# total time of handling the missing
total_mem_lat                277705 			# total time of handling the missing
total_mem_access               1367 			# total time of handling the missing
total_miss_handle_time       820357 			# total time of handling the missing
total_nack_count                  0 			# total num of nack messages sending
total_prefetch_nack_count            0 			# total num of nack messages sending
total_normal_nack_count            0 			# total num of nack messages sending
total_write_nack_count            0 			# total num of nack messages sending
total_sync_nack_count             0 			# total num of nack messages sending
total_sc_fail_count               0 			# total num of store conditional fail
total_flip_count               8003 			# total num of flipped messages
total_L1_flip_count               0 			# total num of flipped messages
total_data_reply_benefit          169 			# total num of data reply benefit
average_normal_miss_handle_time     199.2609 # cycles per every miss and invalidation
average_L2_miss_handle_time      83.3333 # cycles per every miss and invalidation
average_sync_miss_handle_time <error: divide by zero: > # cycles per every miss and invalidation
average_miss_handle_time     199.2609 # cycles per every miss and invalidation
total_mesh_network_access        27380 			# total mesh_network access
total_mesh_network_delay      1114890 			# total mesh_network delay
average_mesh_network_time      40.7191 # cycles per mesh_network access
total_normal_mesh_network_access        27380 			# total mesh_network access
total_normal_mesh_network_delay      1114890 			# total mesh_network delay
average_normal_mesh_network_time <error: variable is undefined: total_noraml_mesh_network_delay> # cycles per mesh_network access
total_sync_mesh_network_access            0 			# total mesh_network access
total_sync_mesh_network_delay            0 			# total mesh_network delay
average_sync_mesh_network_time <error: divide by zero: > # cycles per mesh_network access
total_opt_network_access            0 			# total opt_network access
total_opt_network_delay            0 			# total opt_network delay
average_opt_network_time <error: divide by zero: > # cycles per opt_network access
total_normal_opt_network_access            0 			# total opt_network access
total_normal_opt_network_delay            0 			# total opt_network delay
average_normal_opt_network_time <error: divide by zero: > # cycles per opt_network access
total_sync_opt_network_access            0 			# total opt_network access
total_sync_opt_network_delay            0 			# total opt_network delay
average_sync_opt_network_time <error: divide by zero: > # cycles per opt_network access
total_local_cache_access          190 			# total local dl2 cache access number
total_remote_cache_access         9797 			# total remote dl2 cache access number
total_two_hops_involve_wb            0 			# total two hops involves due to write back
total_two_hops_involve_touch            0 			# total two hops involves due to touch
[...]
bpred_comb_60.retstack_pushes          298 			# total number of address pushed onto ret-addr stack
bpred_comb_60.retstack_pops          281 			# total number of address popped off of ret-addr stack
bpred_comb_60.used_ras.PP          277 			# total number of RAS predictions used
bpred_comb_60.ras_hits.PP          249 			# total number of RAS hits
bpred_comb_60.ras_rate.PP    0.8989 # RAS prediction rate (i.e., RAS hits/used RAS)
bpred_comb_61.lookups          2220 			# total number of bpred lookups
bpred_comb_61.updates          1795 # total number of updates
bpred_comb_61.addr_hits         1518 			# total number of address-predicted hits
bpred_comb_61.dir_hits         1578 			# total number of direction-predicted hits (includes addr-hits)
bpred_comb_61.used_bimod          730 			# total number of bimodal predictions used
bpred_comb_61.used_2lev          410 			# total number of 2-level predictions used
bpred_comb_61.misses            217 			# total number of misses
bpred_comb_61.jr_hits           518 			# total number of address-predicted hits for JR's
bpred_comb_61.jr_seen           572 			# total number of JR's seen
bpred_comb_61.jr_non_ras_hits.PP          257 			# total number of address-predicted hits for non-RAS JR's
bpred_comb_61.jr_non_ras_seen.PP          283 			# total number of non-RAS JR's seen
bpred_comb_61.bpred_addr_rate    0.8457 # branch address-prediction rate (i.e., addr-hits/updates)
bpred_comb_61.bpred_dir_rate    0.8791 # branch direction-prediction rate (i.e., all-hits/updates)
bpred_comb_61.bpred_jr_rate    0.9056 # JR address-prediction rate (i.e., JR addr-hits/JRs seen)
bpred_comb_61.bpred_jr_non_ras_rate.PP    0.9081 # non-RAS JR addr-pred rate (ie, non-RAS JR hits/JRs seen)
bpred_comb_61.retstack_pushes          313 			# total number of address pushed onto ret-addr stack
bpred_comb_61.retstack_pops          296 			# total number of address popped off of ret-addr stack
bpred_comb_61.used_ras.PP          289 			# total number of RAS predictions used
bpred_comb_61.ras_hits.PP          261 			# total number of RAS hits
bpred_comb_61.ras_rate.PP    0.9031 # RAS prediction rate (i.e., RAS hits/used RAS)
bpred_comb_62.lookups          2011 			# total number of bpred lookups
bpred_comb_62.updates          1631 # total number of updates
bpred_comb_62.addr_hits         1373 			# total number of address-predicted hits
bpred_comb_62.dir_hits         1434 			# total number of direction-predicted hits (includes addr-hits)
bpred_comb_62.used_bimod          662 			# total number of bimodal predictions used
bpred_comb_62.used_2lev          370 			# total number of 2-level predictions used
bpred_comb_62.misses            197 			# total number of misses
bpred_comb_62.jr_hits           475 			# total number of address-predicted hits for JR's
bpred_comb_62.jr_seen           529 			# total number of JR's seen
bpred_comb_62.jr_non_ras_hits.PP          234 			# total number of address-predicted hits for non-RAS JR's
bpred_comb_62.jr_non_ras_seen.PP          260 			# total number of non-RAS JR's seen
bpred_comb_62.bpred_addr_rate    0.8418 # branch address-prediction rate (i.e., addr-hits/updates)
bpred_comb_62.bpred_dir_rate    0.8792 # branch direction-prediction rate (i.e., all-hits/updates)
bpred_comb_62.bpred_jr_rate    0.8979 # JR address-prediction rate (i.e., JR addr-hits/JRs seen)
bpred_comb_62.bpred_jr_non_ras_rate.PP    0.9000 # non-RAS JR addr-pred rate (ie, non-RAS JR hits/JRs seen)
bpred_comb_62.retstack_pushes          288 			# total number of address pushed onto ret-addr stack
bpred_comb_62.retstack_pops          273 			# total number of address popped off of ret-addr stack
bpred_comb_62.used_ras.PP          269 			# total number of RAS predictions used
bpred_comb_62.ras_hits.PP          241 			# total number of RAS hits
bpred_comb_62.ras_rate.PP    0.8959 # RAS prediction rate (i.e., RAS hits/used RAS)
bpred_comb_63.lookups          1896 			# total number of bpred lookups
bpred_comb_63.updates          1538 # total number of updates
bpred_comb_63.addr_hits         1297 			# total number of address-predicted hits
bpred_comb_63.dir_hits         1355 			# total number of direction-predicted hits (includes addr-hits)
bpred_comb_63.used_bimod          622 			# total number of bimodal predictions used
bpred_comb_63.used_2lev          330 			# total number of 2-level predictions used
bpred_comb_63.misses            183 			# total number of misses
bpred_comb_63.jr_hits           464 			# total number of address-predicted hits for JR's
bpred_comb_63.jr_seen           518 			# total number of JR's seen
bpred_comb_63.jr_non_ras_hits.PP          230 			# total number of address-predicted hits for non-RAS JR's
bpred_comb_63.jr_non_ras_seen.PP          256 			# total number of non-RAS JR's seen
bpred_comb_63.bpred_addr_rate    0.8433 # branch address-prediction rate (i.e., addr-hits/updates)
bpred_comb_63.bpred_dir_rate    0.8810 # branch direction-prediction rate (i.e., all-hits/updates)
bpred_comb_63.bpred_jr_rate    0.8958 # JR address-prediction rate (i.e., JR addr-hits/JRs seen)
bpred_comb_63.bpred_jr_non_ras_rate.PP    0.8984 # non-RAS JR addr-pred rate (ie, non-RAS JR hits/JRs seen)
bpred_comb_63.retstack_pushes          280 			# total number of address pushed onto ret-addr stack
bpred_comb_63.retstack_pops          268 			# total number of address popped off of ret-addr stack
bpred_comb_63.used_ras.PP          262 			# total number of RAS predictions used
bpred_comb_63.ras_hits.PP          234 			# total number of RAS hits
bpred_comb_63.ras_rate.PP    0.8931 # RAS prediction rate (i.e., RAS hits/used RAS)
**************************************************
total finished:       6.92811e-310
average Delay:        42.1846
total mem power:      10.6677
total crossbar power: 50.4076
total arbiter power:  0.0802055
total link power:     44.3647
total power:          105.52
**************************************************
  0 arbiter power: 46.0878
  0 buffer power: 2435.01
  0 crossbar power: 11260.5
  0 link power: 11166.4
0 total router power: 24908
  1 arbiter power: 46.1065
  1 buffer power: 4255.79
  1 crossbar power: 20745.8
  1 link power: 18842.3
1 total router power: 43890
  2 arbiter power: 46.0838
  2 buffer power: 2191.16
  2 crossbar power: 9244.83
  2 link power: 9527.19
2 total router power: 21009.3
  3 arbiter power: 46.0763
  3 buffer power: 1463.4
  3 crossbar power: 5391.61
  3 link power: 6407.56
3 total router power: 13308.6
  4 arbiter power: 46.0796
  4 buffer power: 1747.22
  4 crossbar power: 7106.36
  4 link power: 7798
4 total router power: 16697.7
  5 arbiter power: 46.093
  5 buffer power: 3023.93
  5 crossbar power: 13894.9
  5 link power: 13294.4
5 total router power: 30259.4
  6 arbiter power: 46.1089
  6 buffer power: 4613.94
  6 crossbar power: 21994.6
  6 link power: 19860.8
6 total router power: 46515.4
  7 arbiter power: 46.0792
  7 buffer power: 1705
  7 crossbar power: 6849.86
  7 link power: 7590.01
7 total router power: 16191
  8 arbiter power: 46.0714
  8 buffer power: 1058.43
  8 crossbar power: 2945.28
  8 link power: 4423.91
8 total router power: 8473.68
  9 arbiter power: 46.0714
  9 buffer power: 1058.43
  9 crossbar power: 2945.28
  9 link power: 4423.91
9 total router power: 8473.68
  10 arbiter power: 46.2859
  10 buffer power: 16442.4
  10 crossbar power: 77414.7
  10 link power: 64752.6
10 total router power: 158656
  11 arbiter power: 46.4997
  11 buffer power: 29871.6
  11 crossbar power: 156332
  11 link power: 128485
11 total router power: 314735
  12 arbiter power: 46.4588
  12 buffer power: 25720.6
  12 crossbar power: 145020
  12 link power: 119550
12 total router power: 290337
  13 arbiter power: 46.4456
  13 buffer power: 25402.1
  13 crossbar power: 143575
  13 link power: 118384
13 total router power: 287407
  14 arbiter power: 46.4634
  14 buffer power: 27622.7
  14 crossbar power: 152692
  14 link power: 125719
14 total router power: 306080
  15 arbiter power: 46.4777
  15 buffer power: 30274.7
  15 crossbar power: 158386
  15 link power: 130212
15 total router power: 318920
  16 arbiter power: 46.329
  16 buffer power: 18388.8
  16 crossbar power: 93922.8
  16 link power: 78088.5
16 total router power: 190446
  17 arbiter power: 46.1697
  17 buffer power: 8653.03
  17 crossbar power: 41455.2
  17 link power: 35641.1
17 total router power: 85795.4
  18 arbiter power: 46.0714
  18 buffer power: 1058.43
  18 crossbar power: 2945.28
  18 link power: 4423.91
18 total router power: 8473.68
  19 arbiter power: 46.0714
  19 buffer power: 1058.43
  19 crossbar power: 2945.28
  19 link power: 4423.91
19 total router power: 8473.68
  20 arbiter power: 46.2861
  20 buffer power: 9755.49
  20 crossbar power: 48870.2
  20 link power: 41652.3
20 total router power: 100324
  21 arbiter power: 46.3469
  21 buffer power: 10646.6
  21 crossbar power: 54468.1
  21 link power: 46161.2
21 total router power: 111322
  22 arbiter power: 46.217
  22 buffer power: 8247.36
  22 crossbar power: 40043
  22 link power: 34476.5
22 total router power: 82813.2
  23 arbiter power: 46.206
  23 buffer power: 7866.87
  23 crossbar power: 38335.2
  23 link power: 33098.7
23 total router power: 79347
  24 arbiter power: 46.2456
  24 buffer power: 8727.96
  24 crossbar power: 43043.7
  24 link power: 36915.2
24 total router power: 88733.1
  25 arbiter power: 46.3567
  25 buffer power: 10382.9
  25 crossbar power: 53114.4
  25 link power: 45067.3
25 total router power: 108611
  26 arbiter power: 46.2656
  26 buffer power: 10083.5
  26 crossbar power: 51351.5
  26 link power: 43644.6
26 total router power: 105126
  27 arbiter power: 46.1733
  27 buffer power: 7413.14
  27 crossbar power: 36331.8
  27 link power: 31493
27 total router power: 75284.1
  28 arbiter power: 46.0714
  28 buffer power: 1058.43
  28 crossbar power: 2945.28
  28 link power: 4423.91
28 total router power: 8473.68
  29 arbiter power: 46.0714
  29 buffer power: 1058.43
  29 crossbar power: 2945.28
  29 link power: 4423.91
29 total router power: 8473.68
  30 arbiter power: 46.2672
  30 buffer power: 9628.43
  30 crossbar power: 45742.5
  30 link power: 39106.1
30 total router power: 94523.3
  31 arbiter power: 46.3411
  31 buffer power: 11314.5
  31 crossbar power: 54202.3
  31 link power: 45924.8
31 total router power: 111488
  32 arbiter power: 46.2363
  32 buffer power: 9539.93
  32 crossbar power: 44432.8
  32 link power: 38025.9
32 total router power: 92044.9
  33 arbiter power: 46.2285
  33 buffer power: 9301.61
  33 crossbar power: 44274.5
  33 link power: 37903.7
33 total router power: 91526
  34 arbiter power: 46.27
  34 buffer power: 10531.9
  34 crossbar power: 49876
  34 link power: 42432.5
34 total router power: 102887
  35 arbiter power: 46.3707
  35 buffer power: 12054.1
  35 crossbar power: 58593.2
  35 link power: 49495.7
35 total router power: 120189
  36 arbiter power: 46.2776
  36 buffer power: 11851.2
  36 crossbar power: 49614.1
  36 link power: 42184.8
36 total router power: 103696
  37 arbiter power: 46.1775
  37 buffer power: 7931.47
  37 crossbar power: 35095
  37 link power: 30485.8
37 total router power: 73558.4
  38 arbiter power: 46.0714
  38 buffer power: 1058.43
  38 crossbar power: 2945.28
  38 link power: 4423.91
38 total router power: 8473.68
  39 arbiter power: 46.0714
  39 buffer power: 1058.43
  39 crossbar power: 2945.28
  39 link power: 4423.91
39 total router power: 8473.68
  40 arbiter power: 46.2317
  40 buffer power: 8231.29
  40 crossbar power: 36581.5
  40 link power: 31685.7
40 total router power: 76544.6
  41 arbiter power: 46.3026
  41 buffer power: 9300.04
  41 crossbar power: 44292.4
  41 link power: 37894.4
41 total router power: 91533.2
  42 arbiter power: 46.2137
  42 buffer power: 7701.45
  42 crossbar power: 37006.4
  42 link power: 32020.9
42 total router power: 76775
  43 arbiter power: 46.2048
  43 buffer power: 7527.53
  43 crossbar power: 35764.5
  43 link power: 31011.9
43 total router power: 74350.2
  44 arbiter power: 46.2296
  44 buffer power: 7789.33
  44 crossbar power: 37413
  44 link power: 32345.9
44 total router power: 77594.5
  45 arbiter power: 46.321
  45 buffer power: 8994.81
  45 crossbar power: 44699.2
  45 link power: 38246.7
45 total router power: 91987
  46 arbiter power: 46.2457
  46 buffer power: 7939.86
  46 crossbar power: 38832.6
  46 link power: 33494.3
46 total router power: 80313
  47 arbiter power: 46.1695
  47 buffer power: 6720.63
  47 crossbar power: 31896.9
  47 link power: 27898.7
47 total router power: 66562.5
  48 arbiter power: 46.0714
  48 buffer power: 1058.43
  48 crossbar power: 2945.28
  48 link power: 4423.91
48 total router power: 8473.68
  49 arbiter power: 46.0714
  49 buffer power: 1058.43
  49 crossbar power: 2945.28
  49 link power: 4423.91
49 total router power: 8473.68
  50 arbiter power: 46.2094
  50 buffer power: 6802.55
  50 crossbar power: 32217.4
  50 link power: 28152.7
50 total router power: 67218.9
  51 arbiter power: 46.292
  51 buffer power: 9664.79
  51 crossbar power: 45020.4
  51 link power: 38488.2
51 total router power: 93219.7
  52 arbiter power: 46.2501
  52 buffer power: 10869.7
  52 crossbar power: 49438
  52 link power: 42050.2
52 total router power: 102404
  53 arbiter power: 46.2481
  53 buffer power: 10710.7
  53 crossbar power: 49675.3
  53 link power: 42258.3
53 total router power: 102691
  54 arbiter power: 46.2631
  54 buffer power: 10942.5
  54 crossbar power: 51092.8
  54 link power: 43413
54 total router power: 105494
  55 arbiter power: 46.3513
  55 buffer power: 11821.3
  55 crossbar power: 56120.9
  55 link power: 47470.1
55 total router power: 115459
  56 arbiter power: 46.2773
  56 buffer power: 11127.4
  56 crossbar power: 47862.1
  56 link power: 40782.3
56 total router power: 99818.1
  57 arbiter power: 46.1777
  57 buffer power: 6950.87
  57 crossbar power: 32561.7
  57 link power: 28431.7
57 total router power: 67990.4
  58 arbiter power: 46.0714
  58 buffer power: 1058.43
  58 crossbar power: 2945.28
  58 link power: 4423.91
58 total router power: 8473.68
  59 arbiter power: 46.0714
  59 buffer power: 1058.43
  59 crossbar power: 2945.28
  59 link power: 4423.91
59 total router power: 8473.68
  60 arbiter power: 46.1939
  60 buffer power: 6464.77
  60 crossbar power: 29793.6
  60 link power: 26185.4
60 total router power: 62489.9
  61 arbiter power: 46.2962
  61 buffer power: 10041.1
  61 crossbar power: 51569.1
  61 link power: 43809.3
61 total router power: 105466
  62 arbiter power: 46.2728
  62 buffer power: 11470.2
  62 crossbar power: 60247.5
  62 link power: 50850.2
62 total router power: 122614
  63 arbiter power: 46.2824
  63 buffer power: 12762.2
  63 crossbar power: 68232.3
  63 link power: 57331.5
63 total router power: 138372
  64 arbiter power: 46.3168
  64 buffer power: 14860.2
  64 crossbar power: 80204.4
  64 link power: 67023.2
64 total router power: 162134
  65 arbiter power: 46.4097
  65 buffer power: 19918.1
  65 crossbar power: 103603
  65 link power: 85856.7
65 total router power: 209424
  66 arbiter power: 46.3357
  66 buffer power: 17872.3
  66 crossbar power: 89981.1
  66 link power: 74871.8
66 total router power: 182772
  67 arbiter power: 46.1861
  67 buffer power: 8973.22
  67 crossbar power: 33791.8
  67 link power: 29412.9
67 total router power: 72224.1
  68 arbiter power: 46.0714
  68 buffer power: 1058.43
  68 crossbar power: 2945.28
  68 link power: 4423.91
68 total router power: 8473.68
  69 arbiter power: 46.0714
  69 buffer power: 1058.43
  69 crossbar power: 2945.28
  69 link power: 4423.91
69 total router power: 8473.68
  70 arbiter power: 46.1459
  70 buffer power: 4144
  70 crossbar power: 16179.3
  70 link power: 15148.3
70 total router power: 35517.7
  71 arbiter power: 46.2312
  71 buffer power: 6194.94
  71 crossbar power: 27933.3
  71 link power: 24646.8
71 total router power: 58821.3
  72 arbiter power: 46.194
  72 buffer power: 5906.7
  72 crossbar power: 26481.4
  72 link power: 23486.7
72 total router power: 55921
  73 arbiter power: 46.1853
  73 buffer power: 5739.42
  73 crossbar power: 25294.8
  73 link power: 22525.3
73 total router power: 53605.7
  74 arbiter power: 46.1907
  74 buffer power: 5908.94
  74 crossbar power: 26092.1
  74 link power: 23163.4
74 total router power: 55210.6
  75 arbiter power: 46.2334
  75 buffer power: 6670.15
  75 crossbar power: 30798
  75 link power: 26972.6
75 total router power: 64486.9
  76 arbiter power: 46.2118
  76 buffer power: 7861.88
  76 crossbar power: 33700.7
  76 link power: 29313
76 total router power: 70921.8
  77 arbiter power: 46.1318
  77 buffer power: 4650.24
  77 crossbar power: 18996.3
  77 link power: 17429.5
77 total router power: 41122.2
  78 arbiter power: 46.0714
  78 buffer power: 1058.43
  78 crossbar power: 2945.28
  78 link power: 4423.91
78 total router power: 8473.68
  79 arbiter power: 46.0714
  79 buffer power: 1058.43
  79 crossbar power: 2945.28
  79 link power: 4423.91
79 total router power: 8473.68
  80 arbiter power: 46.113
  80 buffer power: 3043
  80 crossbar power: 9061.66
  80 link power: 9376.9
80 total router power: 21527.7
  81 arbiter power: 46.2023
  81 buffer power: 7431.56
  81 crossbar power: 28226.1
  81 link power: 24845.6
81 total router power: 60549.4
  82 arbiter power: 46.2162
  82 buffer power: 7241.08
  82 crossbar power: 30305.1
  82 link power: 26547.8
82 total router power: 64140.2
  83 arbiter power: 46.1988
  83 buffer power: 6885.66
  83 crossbar power: 28100.9
  83 link power: 24770.8
83 total router power: 59803.6
  84 arbiter power: 46.1906
  84 buffer power: 6223.1
  84 crossbar power: 25873
  84 link power: 22971.3
84 total router power: 55113.6
  85 arbiter power: 46.198
  85 buffer power: 5646.98
  85 crossbar power: 24740.5
  85 link power: 22055.7
85 total router power: 52489.3
  86 arbiter power: 46.187
  86 buffer power: 6406.36
  86 crossbar power: 29484.4
  86 link power: 25899.4
86 total router power: 61836.3
  87 arbiter power: 46.1056
  87 buffer power: 3307.67
  87 crossbar power: 11283.9
  87 link power: 11183.1
87 total router power: 25820.8
  88 arbiter power: 46.0714
  88 buffer power: 1058.43
  88 crossbar power: 2945.28
  88 link power: 4423.91
88 total router power: 8473.68
  89 arbiter power: 46.0714
  89 buffer power: 1058.43
  89 crossbar power: 2945.28
  89 link power: 4423.91
89 total router power: 8473.68
  90 arbiter power: 46.0714
  90 buffer power: 1058.43
  90 crossbar power: 2945.28
  90 link power: 4423.91
90 total router power: 8473.68
  91 arbiter power: 46.0822
  91 buffer power: 2041.33
  91 crossbar power: 8430.56
  91 link power: 8871.74
91 total router power: 19389.7
  92 arbiter power: 46.1059
  92 buffer power: 4192.74
  92 crossbar power: 20351.6
  92 link power: 18514.5
92 total router power: 43104.9
  93 arbiter power: 46.0885
  93 buffer power: 2485.14
  93 crossbar power: 11560
  93 link power: 11409.3
93 total router power: 25500.6
  94 arbiter power: 46.0859
  94 buffer power: 2270.32
  94 crossbar power: 10263.3
  94 link power: 10357.9
94 total router power: 22937.6
  95 arbiter power: 46.0988
  95 buffer power: 3548.81
  95 crossbar power: 16781.9
  95 link power: 15625.2
95 total router power: 36002
  96 arbiter power: 46.1118
  96 buffer power: 4739.99
  96 crossbar power: 23518.3
  96 link power: 21104.5
96 total router power: 49408.9
  97 arbiter power: 46.0806
  97 buffer power: 1831.76
  97 crossbar power: 7620.04
  97 link power: 8214.52
97 total router power: 17712.4
  98 arbiter power: 46.0714
  98 buffer power: 1058.43
  98 crossbar power: 2945.28
  98 link power: 4423.91
98 total router power: 8473.68
  99 arbiter power: 46.0714
  99 buffer power: 1058.43
  99 crossbar power: 2945.28
  99 link power: 4423.91
99 total router power: 8473.68
Total Network power: 7.38097e+06
Total finished packet:		    27380
Total delay in popNet:		    1.15502e+06
Average delay in popNet:		42.1846

