file /home/xiaozhenli/simplescalar/simplesim-3.0/sim-outorder